/*--------------------------------*- C++ -*----------------------------------*\
| =========                 |                                                 |
| \\      /  F ield         | OpenFOAM: The Open Source CFD Toolbox           |
|  \\    /   O peration     | Version:  v2312                                 |
|   \\  /    A nd           | Website:  www.openfoam.com                      |
|    \\/     M anipulation  |                                                 |
\*---------------------------------------------------------------------------*/
FoamFile
{
    version     2.0;
    format      ascii;
    class       dictionary;
    object      blockMeshDict;
}
// * * * * * * * * * * * * * * * * * * * * * * * * * * * * * * * * * * * * * //

scale   0.01;
L 10;
H 10;
D 1.4;

X0 -10;
X1 -1;
Y0 5.4;
Y1 7;
Z0 0;
Z1 8;
NX 100;
NY 20;
NZ 100;
vertices
(
    ($X0 $Y0 $Z0)
    ($X1 $Y0 $Z0)
    ($X1 $Y1 $Z0)
    ($X0 $Y1 $Z0)
    ($X0 $Y0 $Z1)
    ($X1 $Y0 $Z1)
    ($X1 $Y1 $Z1)
    ($X0 $Y1 $Z1)
);

blocks
(
    hex (0 1 2 3 4 5 6 7) ($NX $NY $NZ) simpleGrading (1 1 1)
);

edges
(
);

boundary
(
    top
    {
        type wall;
        faces
        (
            (3 7 6 2)
        );
    }
    inlet
    {
        type patch;
        faces
        (
            (0 4 7 3)
        );
    }
    outlet
    {
        type patch;
        faces
        (
            (2 6 5 1)
        );
    }
    bottom
    {
        type patch;
        faces
        (
            (1 5 4 0)
        );
    }
    frontAndBack
    {
        type patch;
        faces
        (
            (0 3 2 1)
            (4 5 6 7)
        );
    }
);

mergePatchPairs
(
);


// ************************************************************************* //
